tests/data/power_flow/pandapower-symmetric-line/pgm_sym_output.json
{
  "line": [
    {
      "id": 3,
      "energized": 1,
      "loading": 0.07625893811747866,
      "p_from": 14088.783848771192,
      "q_from": -1387005.3644095904,
      "i_from": 76.25893811747866,
      "s_from": 1387076.9173810508,
      "p_to": -10748.539588232527,
      "q_to": 1042467.7448821729,
      "i_to": 57.19171883005464,
      "s_to": 1042523.1557250911
    },
    {
      "id": 6,
      "energized": 1,
      "loading": 0.03810127409805559,
      "p_from": 10680.174169398502,
      "q_from": -694449.5569571642,
      "i_from": 38.10127409805559,
      "s_from": 694531.6791034734,
      "p_to": -10068.490778842724,
      "q_to": 346656.3387446558,
      "i_to": 19.00780108587282,
      "s_to": 346802.5255075476
    },
    {
      "id": 7,
      "energized": 1,
      "loading": 0.01909191045424059,
      "p_from": 68.36541920596164,
      "q_from": -348018.18792475655,
      "i_from": 19.09191045424059,
      "s_from": 348018.1946396793,
      "p_to": 0.0,
      "q_to": 0.0,
      "i_to": 0.0,
      "s_to": 0.0
    },
    {
      "id": 8,
      "energized": 1,
      "loading": 0.019109406577584406,
      "p_from": 0.0,
      "q_from": 0.0,
      "i_from": 0.0,
      "s_from": 0.0,
      "p_to": 68.49077888494399,
      "q_to": -348656.33874464233,
      "i_to": 19.109406577584405,
      "s_to": 348656.34547187807
    }
  ],
  "node": [
    {
      "id": 1,
      "energized": 1,
      "u_pu": 1.0001378528844524,
      "u": 10501.44745528675,
      "u_angle": -1.5201010093016138e-05
    },
    {
      "id": 2,
      "energized": 1,
      "u_pu": 1.0023113184368033,
      "u": 10524.268843586435,
      "u_angle": -0.0027863041826989335
    },
    {
      "id": 5,
      "energized": 1,
      "u_pu": 1.0032298521004879,
      "u": 10533.913447055123,
      "u_angle": -0.003979258726432569
    }
  ],
  "source": [
    {
      "id": 4,
      "energized": 1,
      "p": 14088.783849236845,
      "q": -1387005.364404916,
      "i": 76.25893811722194,
      "s": 1387076.9173763813,
      "pf": 0.010157175620718568
    }
  ],
  "sym_load": [
    {
      "id": 9,
      "energized": 1,
      "p": 10000.0,
      "q": 2000.0,
      "i": 0.5589414235407366,
      "s": 10198.03902718557,
      "pf": 0.9805806756909201
    }
  ]
}