tests/data/power_flow/pandapower-symmetric-line/sym_output.json
{
  "line": [
    {
      "id": 3,
      "loading": 0.07625893811746787,
      "p_from": 14088.783849055422,
      "q_from": -1387005.364409392,
      "i_from": 76.25893811746786,
      "s_from": 1387076.9173808552,
      "p_to": -10748.5395885748,
      "q_to": 1042467.744881974,
      "i_to": 57.19171883004393,
      "s_to": 1042523.1557248958
    },
    {
      "id": 6,
      "loading": 0.03810127409805565,
      "p_from": 10680.174169455391,
      "q_from": -694449.5569571642,
      "i_from": 38.101274098055654,
      "s_from": 694531.6791034744,
      "p_to": -10068.49077895681,
      "q_to": 346656.3387446275,
      "i_to": 19.007801085871463,
      "s_to": 346802.52550752263
    },
    {
      "id": 7,
      "loading": 0.01909191045423887,
      "p_from": 68.36541929057039,
      "q_from": -348018.18792472495,
      "i_from": 19.091910454238867,
      "s_from": 348018.1946396477,
      "p_to": -1.7106783681066587e-07,
      "q_to": -2.795264709930124e-08,
      "i_to": 9.506072686442099e-12,
      "s_to": 1.7333653761091076e-07
    },
    {
      "id": 8,
      "loading": 0.019109406577584673,
      "p_from": 0.0,
      "q_from": 0.0,
      "i_from": 0.0,
      "s_from": 0.0,
      "p_to": 68.49077884391909,
      "q_to": -348656.33874464704,
      "i_to": 19.109406577584675,
      "s_to": 348656.3454718827
    }
  ],
  "node": [
    {
      "id": 1,
      "u_pu": 1.000137852884453,
      "u": 10501.447455286754,
      "u_angle": -1.5201010093041165e-05
    },
    {
      "id": 2,
      "u_pu": 1.0023113184368029,
      "u": 10524.268843586431,
      "u_angle": -0.002786304182699052
    },
    {
      "id": 5,
      "u_pu": 1.0032298521004872,
      "u": 10533.913447055116,
      "u_angle": -0.003979258726432784
    }
  ],
  "source": [
    {
      "id": 4,
      "p": 14088.783849055426,
      "q": -1387005.36440925,
      "i": 76.25893811746005,
      "s": 1387076.9173807132
    }
  ],
  "sym_load": [
    {
      "id": 9,
      "p": 10000.0,
      "q": 2000.0
    }
  ]
}